/*--------------------------------*- C++ -*----------------------------------*\
| =========                 |                                                 |
| \\      /  F ield         | OpenFOAM: The Open Source CFD Toolbox           |
|  \\    /   O peration     | Version:  v2006                                 |
|   \\  /    A nd           | Website:  www.openfoam.com                      |
|    \\/     M anipulation  |                                                 |
\*---------------------------------------------------------------------------*/
FoamFile
{
    version     2.0;
    format      ascii;
    class       dictionary;
    object      createPatchDict;
}
// * * * * * * * * * * * * * * * * * * * * * * * * * * * * * * * * * * * * * //

pointSync false;

// Patches to create
patches
(
    {
        // Name of new patch
        name oversetSurface;

        // Dictionary to construct new patch from
        patchInfo
        {
            type overset;
        }

        // How to construct: either from 'patches' or 'set'
        constructFrom set;


        // If constructFrom = set : name of faceSet
        set c0;
    }
/*    {
// Name of new patch
        name oversetPatch;

        // Dictionary to construct new patch from
        patchInfo
        {
            type overset;
        }

        // How to construct: either from 'patches' or 'set'
        constructFrom set;


        // If constructFrom = set : name of faceSet
        set c0;
    }
*/
);

// ************************************************************************* //
