/*--------------------------------*- C++ -*----------------------------------*\
| =========                 |                                                 |
| \\      /  F ield         | foam-extend: Open Source CFD                    |
|  \\    /   O peration     | Version:  1.4                                   |
|   \\  /    A nd           | Web:      http://www.openfoam.org               |
|    \\/     M anipulation  | For copyright notice see file Copyright         |
\*---------------------------------------------------------------------------*/

FoamFile
{
    version         2.0;
    format          ascii;
    class           volScalarField;
    object          nut;
}

// * * * * * * * * * * * * * * * * * * * * * * * * * * * * * * * * * * * * * //

dimensions [0 2 -1 0 0 0 0];

internalField uniform 0;

boundaryField
{
    oversetSurface
    {
        type    overset;
		value   uniform 0;
        
    }


    in
    {
        type    calculated;
        value   uniform 0;
    }
    out
    {
        type    calculated;
        value   uniform 0;
    }

   
    top
    {
       type    calculated;
        value   uniform 0;
    }

    wing
    {
       type            nutkWallFunction;
        value           uniform 0;
    }


    
}


// ************************************************************************* //
